*Heading
ABAQUS input file for SBFEM UEL
*NODE, NSET=SBFEM_NODE
1,	0.0000000000,	0.7071067812,	0.7071067812
2,	0.1532634763,	0.6987525695,	0.6987525695
3,	0.3029054515,	0.6738873376,	0.6738873376
4,	0.4453899701,	0.6330986394,	0.6330986394
5,	0.5773502692,	0.5773502692,	0.5773502692
6,	0.6330986394,	0.4453899701,	0.6330986394
7,	0.6738873376,	0.3029054515,	0.6738873376
8,	0.6987525695,	0.1532634763,	0.6987525695
9,	0.1950903296,	0.0000000000,	0.9807852789
10,	0.3826834370,	0.0000000000,	0.9238795306
11,	0.5555702493,	0.0000000000,	0.8314696014
12,	0.7071067812,	0.0000000000,	0.7071067812
13,	0.0000000000,	0.5555702493,	0.8314696014
14,	0.0000000000,	0.3826834370,	0.9238795306
15,	0.0000000000,	0.1950903296,	0.9807852789
16,	0.0000000000,	0.0000000000,	1.0000000000
17,	0.0000000000,	0.8314696014,	0.5555702493
18,	0.0000000000,	0.9238795306,	0.3826834370
19,	0.0000000000,	0.9807852789,	0.1950903296
20,	0.0000000000,	1.0000000000,	0.0000000000
** ... 4807 like lines cut
*USER ELEMENT, NODES=8, TYPE=U1008, I PROPERTIES=3, PROPERTIES=8, COORDINATES=3, VARIABLES=1200
1, 2, 3
*ELEMENT, TYPE=U1008, ELSET=Inner
1,	128,	129,	132,	133,	144,	145,	148,	165
2,	129,	130,	133,	134,	145,	146,	165,	166
3,	130,	131,	134,	135,	146,	147,	166,	167
4,	132,	133,	136,	137,	148,	149,	165,	168
5,	133,	134,	137,	138,	165,	166,	168,	169
6,	134,	135,	138,	139,	166,	167,	169,	170
7,	136,	137,	140,	141,	149,	150,	168,	171
8,	137,	138,	141,	142,	168,	169,	171,	172
9,	138,	139,	142,	143,	169,	170,	172,	173
10,	144,	145,	148,	151,	152,	155,	165,	174
11,	145,	146,	152,	153,	165,	166,	174,	175
12,	146,	147,	153,	154,	166,	167,	175,	176
13,	148,	149,	155,	156,	165,	168,	174,	177
14,	165,	166,	168,	169,	174,	175,	177,	178
15,	166,	167,	169,	170,	175,	176,	178,	179
16,	149,	150,	156,	157,	168,	171,	177,	180
17,	168,	169,	171,	172,	177,	178,	180,	181
18,	169,	170,	172,	173,	178,	179,	181,	182
19,	151,	152,	155,	158,	159,	162,	174,	183
20,	152,	153,	159,	160,	174,	175,	183,	184
** ... 628 like lines cut
*ELEMENT, TYPE=U1008, ELSET=Outter
865,	1773,	1774,	1785,	1807,	1856,	1891,	1903,	1963
866,	1774,	1775,	1807,	1808,	1903,	1904,	1963,	1964
867,	1775,	1776,	1808,	1809,	1904,	1905,	1964,	1965
868,	1776,	1777,	1778,	1809,	1859,	1897,	1905,	1965
869,	1785,	1786,	1807,	1810,	1891,	1892,	1963,	1966
870,	1807,	1808,	1810,	1811,	1963,	1964,	1966,	1967
871,	1808,	1809,	1811,	1812,	1964,	1965,	1967,	1968
872,	1778,	1779,	1809,	1812,	1897,	1898,	1965,	1968
873,	1786,	1787,	1810,	1813,	1892,	1893,	1966,	1969
874,	1810,	1811,	1813,	1814,	1966,	1967,	1969,	1970
875,	1811,	1812,	1814,	1815,	1967,	1968,	1970,	1971
876,	1779,	1780,	1812,	1815,	1898,	1899,	1968,	1971
877,	1781,	1787,	1788,	1813,	1853,	1893,	1909,	1969
878,	1781,	1782,	1813,	1814,	1909,	1910,	1969,	1970
879,	1782,	1783,	1814,	1815,	1910,	1911,	1970,	1971
880,	1780,	1783,	1784,	1815,	1858,	1899,	1911,	1971
881,	1855,	1856,	1891,	1894,	1903,	1906,	1963,	1972
882,	1903,	1904,	1906,	1907,	1963,	1964,	1972,	1973
883,	1904,	1905,	1907,	1908,	1964,	1965,	1973,	1974
884,	1859,	1860,	1897,	1900,	1905,	1908,	1965,	1974
** ... 1996 like lines cut
*USER ELEMENT, NODES=10, TYPE=U1010, I PROPERTIES=3, PROPERTIES=8, COORDINATES=3, VARIABLES=1860
1, 2, 3
*ELEMENT, TYPE=U1010, ELSET=Outter
1010,	1647,	1648,	1680,	1681,	1707,	1725,	2043,	2044,	2085,	2086
1011,	1648,	1649,	1681,	1682,	1708,	1726,	2044,	2045,	2086,	2087
1013,	1658,	1659,	1680,	1683,	1709,	1727,	2031,	2032,	2085,	2088
1016,	1651,	1652,	1682,	1685,	1710,	1730,	2037,	2038,	2087,	2090
1017,	1659,	1660,	1683,	1686,	1711,	1732,	2032,	2033,	2088,	2091
1020,	1652,	1653,	1685,	1688,	1712,	1735,	2038,	2039,	2090,	2093
1022,	1654,	1655,	1686,	1687,	1713,	1734,	2049,	2050,	2091,	2092
1023,	1655,	1656,	1687,	1688,	1714,	1736,	2050,	2051,	2092,	2093
1058,	1662,	1663,	1689,	1690,	1715,	1737,	2061,	2062,	2103,	2104
1059,	1663,	1664,	1690,	1691,	1716,	1738,	2062,	2063,	2104,	2105
1061,	1647,	1648,	1689,	1692,	1707,	1739,	2043,	2044,	2103,	2106
1064,	1666,	1667,	1691,	1694,	1717,	1742,	2055,	2056,	2105,	2108
1065,	1648,	1649,	1692,	1695,	1708,	1744,	2044,	2045,	2106,	2109
1068,	1667,	1668,	1694,	1697,	1718,	1747,	2056,	2057,	2108,	2111
1070,	1669,	1670,	1695,	1696,	1719,	1746,	2067,	2068,	2109,	2110
1071,	1670,	1671,	1696,	1697,	1720,	1748,	2068,	2069,	2110,	2111
1106,	1673,	1674,	1698,	1699,	1721,	1749,	2079,	2080,	2121,	2122
1107,	1674,	1675,	1699,	1700,	1722,	1750,	2080,	2081,	2122,	2123
1109,	1670,	1671,	1698,	1701,	1720,	1751,	2068,	2069,	2121,	2124
1112,	1677,	1678,	1700,	1703,	1723,	1754,	2073,	2074,	2123,	2126
** ... 172 like lines cut
*USER ELEMENT, NODES=13, TYPE=U1013, I PROPERTIES=3, PROPERTIES=8, COORDINATES=3, VARIABLES=3120
1, 2, 3
*ELEMENT, TYPE=U1013, ELSET=Inner
28,	8,	11,	12,	43,	67,	69,	90,	91,	116,	195,	206,	214,	242
29,	7,	40,	65,	67,	85,	86,	90,	116,	117,	214,	215,	242,	243
30,	4,	5,	6,	37,	63,	65,	81,	85,	117,	198,	210,	215,	243
31,	10,	42,	68,	69,	88,	89,	91,	116,	118,	206,	207,	242,	244
32,	39,	83,	84,	86,	88,	116,	117,	118,	119,	242,	243,	244,	245
33,	3,	36,	62,	63,	80,	81,	83,	117,	119,	210,	211,	243,	245
34,	9,	15,	16,	41,	66,	68,	87,	89,	118,	192,	207,	218,	244
35,	14,	38,	64,	66,	82,	84,	87,	118,	119,	218,	219,	244,	245
36,	1,	2,	13,	35,	62,	64,	80,	82,	119,	197,	211,	219,	245
55,	5,	6,	24,	59,	65,	74,	111,	113,	120,	198,	215,	222,	250
56,	7,	60,	65,	67,	112,	113,	115,	120,	121,	214,	215,	250,	251
57,	8,	12,	34,	61,	67,	79,	114,	115,	121,	195,	214,	226,	251
58,	25,	56,	74,	75,	106,	108,	111,	120,	122,	222,	223,	250,	252
59,	57,	107,	108,	110,	112,	120,	121,	122,	123,	250,	251,	252,	253
60,	33,	58,	78,	79,	109,	110,	114,	121,	123,	226,	227,	251,	253
61,	26,	27,	28,	53,	75,	76,	104,	106,	122,	201,	223,	230,	252
62,	29,	54,	76,	77,	104,	105,	107,	122,	123,	230,	231,	252,	253
63,	30,	31,	32,	55,	77,	78,	105,	109,	123,	203,	227,	231,	253
100,	23,	26,	27,	52,	73,	75,	102,	103,	124,	201,	223,	236,	262
101,	25,	51,	74,	75,	100,	101,	103,	124,	125,	222,	223,	262,	263
** ... 196 like lines cut
*ELEMENT, TYPE=U1013, ELSET=Outter
1014,	1680,	1681,	1683,	1684,	1725,	1727,	1728,	1729,	1764,	2085,	2086,	2088,	2089
1015,	1681,	1682,	1684,	1685,	1726,	1728,	1730,	1731,	1762,	2086,	2087,	2089,	2090
1018,	1683,	1684,	1686,	1687,	1729,	1732,	1733,	1734,	1763,	2088,	2089,	2091,	2092
1019,	1684,	1685,	1687,	1688,	1731,	1733,	1735,	1736,	1761,	2089,	2090,	2092,	2093
1062,	1689,	1690,	1692,	1693,	1737,	1739,	1740,	1741,	1772,	2103,	2104,	2106,	2107
1063,	1690,	1691,	1693,	1694,	1738,	1740,	1742,	1743,	1771,	2104,	2105,	2107,	2108
1066,	1692,	1693,	1695,	1696,	1741,	1744,	1745,	1746,	1770,	2106,	2107,	2109,	2110
1067,	1693,	1694,	1696,	1697,	1743,	1745,	1747,	1748,	1769,	2107,	2108,	2110,	2111
1110,	1698,	1699,	1701,	1702,	1749,	1751,	1752,	1753,	1767,	2121,	2122,	2124,	2125
1111,	1699,	1700,	1702,	1703,	1750,	1752,	1754,	1755,	1768,	2122,	2123,	2125,	2126
1114,	1701,	1702,	1704,	1705,	1753,	1756,	1757,	1758,	1765,	2124,	2125,	2127,	2128
1115,	1702,	1703,	1705,	1706,	1755,	1757,	1759,	1760,	1766,	2125,	2126,	2128,	2129
1302,	2164,	2165,	2167,	2168,	2205,	2207,	2208,	2209,	2244,	2511,	2512,	2514,	2515
1303,	2165,	2166,	2168,	2169,	2206,	2208,	2210,	2211,	2242,	2512,	2513,	2515,	2516
1306,	2167,	2168,	2170,	2171,	2209,	2212,	2213,	2214,	2243,	2514,	2515,	2517,	2518
1307,	2168,	2169,	2171,	2172,	2211,	2213,	2215,	2216,	2241,	2515,	2516,	2518,	2519
1350,	2173,	2174,	2176,	2177,	2217,	2219,	2220,	2221,	2252,	2529,	2530,	2532,	2533
1351,	2174,	2175,	2177,	2178,	2218,	2220,	2222,	2223,	2251,	2530,	2531,	2533,	2534
1354,	2176,	2177,	2179,	2180,	2221,	2224,	2225,	2226,	2250,	2532,	2533,	2535,	2536
1355,	2177,	2178,	2180,	2181,	2223,	2225,	2227,	2228,	2249,	2533,	2534,	2536,	2537
** ... 76 like lines cut
*UEL PROPERTY, ELSET=Inner
5000000.000000,	0.250000,	1.000000,	0, 0, 0, 0, 0
1,	3168, 1
*UEL PROPERTY, ELSET=Outter
1000000.000000,	0.250000,	1.000000,	0, 0, 0, 0, 0
1,	3168, 1
*Nset, nset=Bottom
3523,	3524,	3525,	3526,	3533,	3534,	3535,	3540,	3541,	3542,	3543,	3544,	3545,	3546,	3547,	3548
3583,	3584,	3585,	3586,	3587,	3588,	3589,	3590,	3591,	3929,	3930,	3937,	3938,	3939,	3944,	3945
3946,	3947,	3948,	3949,	3977,	3978,	3979,	3980,	3981,	3982,	3983,	3984,	3985,	4295,	4296,	4300
4301,	4302,	4305,	4306,	4307,	4308,	4309,	4310,	4337,	4338,	4339,	4340,	4341,	4342,	4343,	4344
4345,	4643,	4647,	4648,	4649,	4652,	4653,	4654,	4676,	4677,	4678,	4679,	4680,	4681,	4682,	4683
4684
*Element, type=C3D8, Elset = InnerSurf
3169,	43,	90,	67,	8,	206,	206,	206,	206
3170,	12,	11,	43,	8,	206,	206,	206,	206
3171,	69,	91,	43,	11,	195,	195,	195,	195
3172,	91,	116,	90,	43,	206,	206,	206,	206
3173,	40,	85,	65,	7,	242,	242,	242,	242
3174,	67,	90,	40,	7,	243,	243,	243,	243
3175,	86,	117,	85,	40,	242,	242,	242,	242
3176,	90,	116,	86,	40,	242,	242,	242,	242
3177,	37,	81,	63,	4,	215,	215,	215,	215
3178,	5,	6,	37,	4,	243,	243,	243,	243
3179,	65,	85,	37,	6,	210,	210,	210,	210
3180,	85,	117,	81,	37,	243,	243,	243,	243
3181,	42,	91,	69,	10,	207,	207,	207,	207
3182,	68,	89,	42,	10,	206,	206,	206,	206
3183,	89,	118,	88,	42,	207,	207,	207,	207
3184,	88,	116,	91,	42,	207,	207,	207,	207
3185,	84,	119,	83,	39,	244,	244,	244,	244
3186,	88,	118,	84,	39,	244,	244,	244,	244
3187,	86,	116,	88,	39,	244,	244,	244,	244
3188,	83,	117,	86,	39,	244,	244,	244,	244
** ... 844 like lines cut
*Solid Section, elset=InnerSurf, material=Artificial
,
*Element, type=C3D8, Elset = OutterSurf
4033,	1646,	1658,	1680,	1647,	2043,	2043,	2043,	2043
4034,	1647,	1680,	1725,	1707,	2044,	2044,	2044,	2044
4035,	1648,	1707,	1725,	1681,	2044,	2044,	2044,	2044
4036,	1648,	1681,	1726,	1708,	2045,	2045,	2045,	2045
4037,	1649,	1708,	1726,	1682,	2045,	2045,	2045,	2045
4038,	1649,	1682,	1651,	1650,	2023,	2023,	2023,	2023
4039,	1658,	1709,	1727,	1680,	2085,	2085,	2085,	2085
4040,	1659,	1683,	1727,	1709,	2085,	2085,	2085,	2085
4041,	1680,	1727,	1764,	1725,	2088,	2088,	2088,	2088
4042,	1681,	1725,	1764,	1728,	2086,	2086,	2086,	2086
4043,	1683,	1729,	1764,	1727,	2089,	2089,	2089,	2089
4044,	1684,	1728,	1764,	1729,	2086,	2086,	2086,	2086
4045,	1681,	1728,	1762,	1726,	2089,	2089,	2089,	2089
4046,	1682,	1726,	1762,	1730,	2087,	2087,	2087,	2087
4047,	1684,	1731,	1762,	1728,	2090,	2090,	2090,	2090
4048,	1685,	1730,	1762,	1731,	2087,	2087,	2087,	2087
4049,	1651,	1682,	1730,	1710,	2037,	2037,	2037,	2037
4050,	1652,	1710,	1730,	1685,	2090,	2090,	2090,	2090
4051,	1659,	1711,	1732,	1683,	2088,	2088,	2088,	2088
4052,	1660,	1686,	1732,	1711,	2088,	2088,	2088,	2088
** ... 844 like lines cut
*Solid Section, elset=OutterSurf, material=Artificial
,
*Element, type=C3D8, Elset = TopSurf
4897,	1837,	1850,	1915,	1867,	1855,	1855,	1855,	1855
4898,	1850,	1851,	1916,	1915,	1894,	1894,	1894,	1894
4899,	1851,	1852,	1917,	1916,	1896,	1896,	1896,	1896
4900,	1852,	1836,	1863,	1917,	1854,	1854,	1854,	1854
4901,	1867,	1915,	1918,	1868,	1927,	1927,	1927,	1927
4902,	1915,	1916,	1919,	1918,	1990,	1990,	1990,	1990
4903,	1916,	1917,	1920,	1919,	1991,	1991,	1991,	1991
4904,	1917,	1863,	1862,	1920,	1933,	1933,	1933,	1933
4905,	1868,	1918,	1921,	1869,	1929,	1929,	1929,	1929
4906,	1918,	1919,	1922,	1921,	1993,	1993,	1993,	1993
4907,	1919,	1920,	1923,	1922,	1994,	1994,	1994,	1994
4908,	1920,	1862,	1861,	1923,	1995,	1995,	1995,	1995
4909,	1869,	1921,	1864,	1839,	1871,	1871,	1871,	1871
4910,	1921,	1922,	1865,	1864,	1939,	1939,	1939,	1939
4911,	1922,	1923,	1866,	1865,	1997,	1997,	1997,	1997
4912,	1923,	1861,	1838,	1866,	1998,	1998,	1998,	1998
4913,	2332,	2371,	2318,	2308,	2323,	2323,	2323,	2323
4914,	2371,	2372,	2319,	2318,	2350,	2350,	2350,	2350
4915,	2372,	2373,	2320,	2319,	2352,	2352,	2352,	2352
4916,	2373,	2331,	2307,	2320,	2322,	2322,	2322,	2322
** ... 44 like lines cut
*Solid Section, elset=TopSurf, material=Artificial
,
*Element, type=COH3D8, ELSET=Cohesive
4961,	1,	13,	35,	2,	1646,	1658,	1680,	1647
4962,	2,	35,	80,	62,	1647,	1680,	1725,	1707
4963,	3,	62,	80,	36,	1648,	1707,	1725,	1681
4964,	3,	36,	81,	63,	1648,	1681,	1726,	1708
4965,	4,	63,	81,	37,	1649,	1708,	1726,	1682
4966,	4,	37,	6,	5,	1649,	1682,	1651,	1650
4967,	13,	64,	82,	35,	1658,	1709,	1727,	1680
4968,	14,	38,	82,	64,	1659,	1683,	1727,	1709
4969,	35,	82,	119,	80,	1680,	1727,	1764,	1725
4970,	36,	80,	119,	83,	1681,	1725,	1764,	1728
4971,	38,	84,	119,	82,	1683,	1729,	1764,	1727
4972,	39,	83,	119,	84,	1684,	1728,	1764,	1729
4973,	36,	83,	117,	81,	1681,	1728,	1762,	1726
4974,	37,	81,	117,	85,	1682,	1726,	1762,	1730
4975,	39,	86,	117,	83,	1684,	1731,	1762,	1728
4976,	40,	85,	117,	86,	1685,	1730,	1762,	1731
4977,	6,	37,	85,	65,	1651,	1682,	1730,	1710
4978,	7,	65,	85,	40,	1652,	1710,	1730,	1685
4979,	14,	66,	87,	38,	1659,	1711,	1732,	1683
4980,	15,	41,	87,	66,	1660,	1686,	1732,	1711
** ... 844 like lines cut
*Cohesive Section, elset=Cohesive, material=CohesiveM, response=TRACTION SEPARATION
,
*Material, name=CohesiveM
*Damage Initiation, criterion=MAXS
1000.,1000.,1000.
*Damage Evolution, type=DISPLACEMENT
0.01,
*Elastic, type=TRACTION, compression factor=1e-17
2e+07, 2e+07, 2e+07
*Material, name=Artificial
*Elastic
1e-08, 0.25
**
*Surface, type=ELEMENT, name=InnerSurf
InnerSurf, S1
*Surface, type=ELEMENT, name=OutterSurf
OutterSurf, S1
*Surface, type=ELEMENT, name=TopSurf
TopSurf, S1
*Surface Interaction, name=Contact
1.,
*Friction,lagrange
 0.2,
*Surface Behavior, pressure-overclosure=HARD
*Contact Pair, interaction=Contact, small sliding
OutterSurf, InnerSurf
*BOUNDARY
Bottom,	3,	3
4643	, 1, 2
4295	, 2, 2
*STEP, NAME=precalculation
*Static
*END STEP
*STEP, NAME=traction
*Static
1, 1., 1e-05, 1
*Dsload
TopSurf, P, -5000.
*END STEP
