*Heading
ABAQUS input file for SBFEM UEL
*NODE, NSET=SBFEM_NODE
1,	3.0000000000,	3.0000000000,	0.0000000000
2,	3.0000000000,	0.0000000000,	0.0000000000
3,	3.0000000000,	-3.0000000000,	0.0000000000
4,	0.0000000000,	3.0000000000,	0.0000000000
5,	0.0000000000,	0.0000000000,	0.0000000000
6,	0.0000000000,	-3.0000000000,	0.0000000000
7,	-3.0000000000,	3.0000000000,	0.0000000000
8,	-3.0000000000,	0.0000000000,	0.0000000000
9,	-3.0000000000,	-3.0000000000,	0.0000000000
10,	0.0000000000,	1.0000000000,	0.0000000000
11,	1.0000000000,	3.0000000000,	0.0000000000
12,	3.0000000000,	1.0000000000,	0.0000000000
13,	1.0000000000,	0.0000000000,	0.0000000000
14,	0.0000000000,	-1.0000000000,	0.0000000000
15,	3.0000000000,	-1.0000000000,	0.0000000000
16,	1.0000000000,	-3.0000000000,	0.0000000000
17,	-3.0000000000,	1.0000000000,	0.0000000000
18,	-1.0000000000,	3.0000000000,	0.0000000000
19,	-1.0000000000,	0.0000000000,	0.0000000000
20,	-3.0000000000,	-1.0000000000,	0.0000000000
** ... 68 like lines cut
*USER ELEMENT, NODES=8, TYPE=U1008, I PROPERTIES=3, PROPERTIES=8, COORDINATES=3, VARIABLES=1200
1, 2, 3
*ELEMENT, TYPE=U1008, ELSET=Upper
5,	41,	51,	52,	56,	60,	61,	64,	65
7,	35,	45,	46,	57,	62,	63,	66,	67
11,	43,	54,	55,	58,	68,	69,	72,	73
13,	37,	49,	50,	59,	70,	71,	74,	75
*USER ELEMENT, NODES=10, TYPE=U1010, I PROPERTIES=3, PROPERTIES=8, COORDINATES=3, VARIABLES=1860
1, 2, 3
*ELEMENT, TYPE=U1010, ELSET=Upper
6,	38,	44,	45,	52,	56,	57,	61,	62,	65,	66
8,	42,	51,	53,	54,	56,	58,	64,	65,	68,	69
10,	36,	46,	47,	49,	57,	59,	66,	67,	70,	71
12,	40,	48,	50,	55,	58,	59,	69,	70,	73,	74
*USER ELEMENT, NODES=13, TYPE=U1013, I PROPERTIES=3, PROPERTIES=8, COORDINATES=3, VARIABLES=3120
1, 2, 3
*ELEMENT, TYPE=U1013, ELSET=Lower
1,	1,	2,	4,	5,	10,	11,	12,	13,	23,	26,	27,	29,	30
2,	2,	3,	5,	6,	13,	14,	15,	16,	25,	27,	28,	30,	31
3,	4,	5,	7,	8,	10,	17,	18,	19,	22,	29,	30,	32,	33
4,	5,	6,	8,	9,	14,	19,	20,	21,	24,	30,	31,	33,	34
*ELEMENT, TYPE=U1013, ELSET=Upper
9,	39,	44,	47,	48,	53,	56,	57,	58,	59,	65,	66,	69,	70
*UEL PROPERTY, ELSET=Upper
200000e6,	0.30000,	1.000000,	0, 0, 0, 0, 0
1,	13, 1
*UEL PROPERTY, ELSET=Lower
200000e6,	0.30000,	1.000000,	0, 0, 0, 0, 0
1,	13, 1
*Element, type=C3D5, Elset = LowerSurf
14,	4,	11,	23,	10,	76
15,	1,	12,	23,	11,	76
16,	5,	10,	23,	13,	76
17,	2,	13,	23,	12,	76
18,	5,	13,	25,	14,	77
19,	2,	15,	25,	13,	77
20,	6,	14,	25,	16,	77
21,	3,	16,	25,	15,	77
22,	7,	18,	22,	17,	78
23,	4,	10,	22,	18,	78
24,	8,	17,	22,	19,	78
25,	5,	19,	22,	10,	78
26,	8,	19,	24,	20,	79
27,	5,	14,	24,	19,	79
28,	9,	20,	24,	21,	79
29,	6,	21,	24,	14,	79
*Solid Section, elset=LowerSurf, material=Artificial
,
*Element, type=C3D5, Elset = UpperSurf
30,	51,	56,	52,	41,	80
31,	52,	56,	44,	38,	81
32,	44,	57,	45,	38,	81
33,	45,	57,	46,	35,	82
34,	53,	56,	51,	42,	83
35,	54,	58,	53,	42,	83
36,	44,	56,	53,	39,	84
37,	53,	58,	48,	39,	84
38,	47,	57,	44,	39,	84
39,	48,	59,	47,	39,	84
40,	46,	57,	47,	36,	85
41,	47,	59,	49,	36,	85
42,	55,	58,	54,	43,	86
43,	48,	58,	55,	40,	87
44,	50,	59,	48,	40,	87
45,	49,	59,	50,	37,	88
*Solid Section, elset=UpperSurf, material=Artificial
,
*Element, type=COH3D8, ELSET=COHESION
59,	17,	22,	18,	7,	51,	56,	52,	41
60,	18,	22,	10,	4,	52,	56,	44,	38
61,	10,	23,	11,	4,	44,	57,	45,	38
62,	11,	23,	12,	1,	45,	57,	46,	35
63,	19,	22,	17,	8,	53,	56,	51,	42
64,	20,	24,	19,	8,	54,	58,	53,	42
65,	10,	22,	19,	5,	44,	56,	53,	39
66,	19,	24,	14,	5,	53,	58,	48,	39
67,	13,	23,	10,	5,	47,	57,	44,	39
68,	14,	25,	13,	5,	48,	59,	47,	39
69,	12,	23,	13,	2,	46,	57,	47,	36
70,	13,	25,	15,	2,	47,	59,	49,	36
71,	21,	24,	20,	9,	55,	58,	54,	43
72,	14,	24,	21,	6,	48,	58,	55,	40
73,	16,	25,	14,	6,	50,	59,	48,	40
74,	15,	25,	16,	3,	49,	59,	50,	37
*Nset, nset=UpperNode
39
*Nset, nset=LowerNode
5
*Nset, nset=TopNode
60, 61, 62, 63, 64, 65, 66, 67, 68, 69, 70, 71, 72, 73, 74, 75
*Nset, nset=BottomNode
26, 27, 28, 29, 30, 31, 32, 33, 34
*Nset, nset=FrontNode
28, 31, 34, 3, 16, 6, 21, 9, 37, 50, 40, 55, 43, 72, 73, 74, 75
*Nset, nset=LeftNode
32, 33, 34, 7, 17, 8, 20, 9, 41, 51, 42, 54, 43, 60, 64, 68, 72
** Section: Cohesion
*Cohesive Section, elset=COHESION, material=Cohesion, response=TRACTION SEPARATION
,
*Material, name=Cohesion
*Damage Initiation, criterion=MAXE
 0.001, 0.001, 0.001
*Damage Evolution, type=DISPLACEMENT, softening=EXPONENTIAL
 0.004, 2.
*Elastic, type=TRACTION
 1e6, 1e6, 1e6
*Material, name=Artificial
*Elastic
1e-016, 0.25
**
*Surface, type=ELEMENT, name=LowerSurf
LowerSurf, S1
*Surface, type=ELEMENT, name=UpperSurf
UpperSurf, S1
*Surface Interaction, name=Contact
1.,
*Friction, lagrange
 0.5,
*Surface Behavior,direct
*Contact Pair, interaction=Contact, small sliding, type=SURFACE TO SURFACE
LowerSurf, UpperSurf
*Boundary
BottomNode, 3, 3
FrontNode, 2, 2
LeftNode, 1, 1
*Amplitude, name=Amp-1, definition=PERIODIC
1,  6.28318530717959,              0.,              0.
             0.,             0.8
*Amplitude, name=Amp-2, definition=PERIODIC
1,  6.28318530717959,              0.,              0.
             0.,              2.
*Amplitude, name=Amp-3, definition=PERIODIC
1,  6.28318530717959,              0.,              0.
             0.,              6. 
*STEP, NAME=precalculation
*Static
*END STEP                                       
*Step, name=step-1, nlgeom=NO, inc=1000
*Static, direct
0.0025, 1.,
*Boundary, amplitude = Amp-1
TopNode, 3, 3, 0.001
*Restart, write, frequency=0
*Output, field, variable=PRESELECT
*Output, history
*Element Output, elset=Cohesion
S33, 
*Node Output, nset=UpperNode
U3,
*Node Output, nset=LowerNode
U3,
*END STEP
*Step, name=step-2, nlgeom=NO, inc=1000
*Static, direct
0.0025, 1,
*Boundary, amplitude = Amp-2
TopNode, 3, 3, 0.001
*Restart, write, frequency=0
*Output, field, variable=PRESELECT
*Output, history
*Element Output, elset=Cohesion
S33, 
*Node Output, nset=UpperNode
U3,
*Node Output, nset=LowerNode
U3,
*END STEP
*Step, name=step-3, nlgeom=NO, inc=1000
*Static, direct
0.0025, 1.,
*Boundary, amplitude = Amp-3
TopNode, 3, 3, 0.001
*Restart, write, frequency=0
*Output, field, variable=PRESELECT
*Output, history
*Element Output, elset=Cohesion
S33, 
*Node Output, nset=UpperNode
U3,
*Node Output, nset=LowerNode
U3,
*END STEP
