  *Heading
ABAQUS input file for SBFEM UEL
*NODE, NSET=SBFEM_NODE
1,	3.0000000000,	3.0000000000,	0.0000000000
2,	3.0000000000,	0.0000000000,	0.7500000000
3,	3.0000000000,	-3.0000000000,	0.0000000000
4,	0.0000000000,	3.0000000000,	0.7500000000
5,	0.0000000000,	0.0000000000,	1.5000000000
6,	0.0000000000,	-3.0000000000,	0.7500000000
7,	-3.0000000000,	3.0000000000,	0.0000000000
8,	-3.0000000000,	0.0000000000,	0.7500000000
9,	-3.0000000000,	-3.0000000000,	0.0000000000
10,	0.0000000000,	1.0000000000,	1.4166666667
11,	1.0000000000,	3.0000000000,	0.6666666667
12,	3.0000000000,	1.0000000000,	0.6666666667
13,	1.0000000000,	0.0000000000,	1.4166666667
14,	0.0000000000,	-1.0000000000,	1.4166666667
15,	3.0000000000,	-1.0000000000,	0.6666666667
16,	1.0000000000,	-3.0000000000,	0.6666666667
17,	-3.0000000000,	1.0000000000,	0.6666666667
18,	-1.0000000000,	3.0000000000,	0.6666666667
19,	-1.0000000000,	0.0000000000,	1.4166666667
20,	-3.0000000000,	-1.0000000000,	0.6666666667
** ... 68 like lines cut
*USER ELEMENT, NODES=8, TYPE=U1008, I PROPERTIES=3, PROPERTIES=8, COORDINATES=3, VARIABLES=10
1, 2, 3
*ELEMENT, TYPE=U1008, ELSET=Upper
5,	41,	51,	52,	56,	60,	61,	64,	65
7,	35,	45,	46,	57,	62,	63,	66,	67
11,	43,	54,	55,	58,	68,	69,	72,	73
13,	37,	49,	50,	59,	70,	71,	74,	75
*USER ELEMENT, NODES=10, TYPE=U1010, I PROPERTIES=3, PROPERTIES=8, COORDINATES=3, VARIABLES=10
1, 2, 3
*ELEMENT, TYPE=U1010, ELSET=Upper
6,	38,	44,	45,	52,	56,	57,	61,	62,	65,	66
8,	42,	51,	53,	54,	56,	58,	64,	65,	68,	69
10,	36,	46,	47,	49,	57,	59,	66,	67,	70,	71
12,	40,	48,	50,	55,	58,	59,	69,	70,	73,	74
*USER ELEMENT, NODES=13, TYPE=U1013, I PROPERTIES=3, PROPERTIES=8, COORDINATES=3, VARIABLES=10
1, 2, 3
*ELEMENT, TYPE=U1013, ELSET=Lower
1,	1,	2,	4,	5,	10,	11,	12,	13,	23,	26,	27,	29,	30
2,	2,	3,	5,	6,	13,	14,	15,	16,	25,	27,	28,	30,	31
3,	4,	5,	7,	8,	10,	17,	18,	19,	22,	29,	30,	32,	33
4,	5,	6,	8,	9,	14,	19,	20,	21,	24,	30,	31,	33,	34
*ELEMENT, TYPE=U1013, ELSET=Upper
9,	39,	44,	47,	48,	53,	56,	57,	58,	59,	65,	66,	69,	70
*UEL PROPERTY, ELSET=Lower
10e6,	0.30000,	1.000000,	0, 0, 0, 0, 0
1,	13, 1
*UEL PROPERTY, ELSET=Upper
10e6,	0.30000,	1.000000,	0, 0, 0, 0, 0
1,	13, 1
*Element, type=C3D5, Elset = LowerSurf
14,	4,	11,	23,	10,	76
15,	1,	12,	23,	11,	76
16,	5,	10,	23,	13,	76
17,	2,	13,	23,	12,	76
18,	5,	13,	25,	14,	77
19,	2,	15,	25,	13,	77
20,	6,	14,	25,	16,	77
21,	3,	16,	25,	15,	77
22,	7,	18,	22,	17,	78
23,	4,	10,	22,	18,	78
24,	8,	17,	22,	19,	78
25,	5,	19,	22,	10,	78
26,	8,	19,	24,	20,	79
27,	5,	14,	24,	19,	79
28,	9,	20,	24,	21,	79
29,	6,	21,	24,	14,	79
*Solid Section, elset=LowerSurf, material=Artificial
,
*Element, type=C3D5, Elset = UpperSurf
30,	51,	56,	52,	41,	80
31,	52,	56,	44,	38,	81
32,	44,	57,	45,	38,	81
33,	45,	57,	46,	35,	82
34,	53,	56,	51,	42,	83
35,	54,	58,	53,	42,	83
36,	44,	56,	53,	39,	84
37,	53,	58,	48,	39,	84
38,	47,	57,	44,	39,	84
39,	48,	59,	47,	39,	84
40,	46,	57,	47,	36,	85
41,	47,	59,	49,	36,	85
42,	55,	58,	54,	43,	86
43,	48,	58,	55,	40,	87
44,	50,	59,	48,	40,	87
45,	49,	59,	50,	37,	88
*Solid Section, elset=UpperSurf, material=Artificial
,
*Element, type=C3D5, Elset = TopSurf
46,	60,	61,	65,	64,	80
47,	61,	62,	66,	65,	81
48,	62,	63,	67,	66,	82
49,	64,	65,	69,	68,	83
50,	65,	66,	70,	69,	84
51,	66,	67,	71,	70,	85
52,	68,	69,	73,	72,	86
53,	69,	70,	74,	73,	87
54,	70,	71,	75,	74,	88
*Solid Section, elset=TopSurf, material=Artificial
,
*Element, type=C3D5, Elset = BottomSurf
55,	30,	27,	26,	29,	76
56,	31,	28,	27,	30,	77
57,	33,	30,	29,	32,	78
58,	34,	31,	30,	33,	79
*Solid Section, elset=BottomSurf, material=Artificial
,
**
*Material, name=Artificial
*Elastic
1e-16, 0.3
**
*Surface, type=ELEMENT, name=LowerSurf
LowerSurf, S1
*Surface, type=ELEMENT, name=UpperSurf
UpperSurf, S1
*Surface, type=ELEMENT, name=TopSurf
TopSurf, S1
*Surface, type=ELEMENT, name=BottomSurf
BottomSurf, S1
*Surface Interaction, name=Contact
1.,
*Friction, lagrange
 0.5,
*Surface Behavior, direct
*Contact Pair, interaction=Contact, small sliding,type=SURFACE TO SURFACE
LowerSurf, UpperSurf
*Boundary
34, 1, 3
28, 2, 3
32, 3, 3
*STEP, NAME=Step-1
*Static
1, 1., 1e-05, 1
*Dsload
TopSurf, P, 1e6
*Dsload
BottomSurf, P, 1e6
*END STEP
